.SUBCKT inv a y
*.PININFO  y:B a:I
*
*.SCALE METER
*.GLOBAL gnd vdd
*
MP1  y a vdd vdd C5NPMOS  w=300n l=30n m=1
MN1  y a gnd gnd C5NNMOS  w=200n l=30n m=1
M2  y a gnd gnd C5NNMOS  w=200n l=30n m=1
.ENDS
